carb_with_H_aligned
 OpenBabel08022305193D

 42 44  0  0  1  0  0  0  0  0999 V2000
    1.7490    0.6350 -104.1820 C   0  0  0  0  0  0  0  0  0  0  0  0
    3.6550    3.9710 -103.0470 N   0  0  0  0  0  0  0  0  0  0  0  0
    4.6510    4.2650 -101.0440 O   0  0  0  0  0  0  0  0  0  0  0  0
    3.9430    0.7930 -102.5570 S   0  0  0  0  0  0  0  0  0  0  0  0
    3.1520    0.0180 -104.0210 C   0  0  0  0  0  0  0  0  0  0  0  0
    4.6530    1.6530 -104.8320 N   0  0  2  0  0  0  0  0  0  0  0  0
    2.3230    5.0780  -98.8180 O   0  0  0  0  0  0  0  0  0  0  0  0
    2.9940   -1.5000 -103.7920 C   0  0  0  0  0  0  0  0  0  0  0  0
    2.7150    6.8320 -100.1150 O   0  0  0  0  0  0  0  0  0  0  0  0
    5.0500    1.9350 -103.4640 C   0  0  1  0  0  0  0  0  0  0  0  0
    3.9860    3.4720 -106.1790 O   0  0  0  0  0  0  0  0  0  0  0  0
    4.8040    3.4250 -103.7590 C   0  0  1  0  0  0  0  0  0  0  0  0
    6.1070   -0.7650 -104.8400 O   0  0  0  0  0  0  0  0  0  0  0  0
    3.6440    4.3270 -101.7550 C   0  0  2  0  0  0  0  0  0  0  0  0
    5.0150   -1.1940 -106.7240 O   0  0  0  0  0  0  0  0  0  0  0  0
    2.2650    4.7690 -101.2160 C   0  0  2  0  0  0  0  0  0  0  0  0
    2.4550    5.6210  -99.9390 C   0  0  0  0  0  0  0  0  0  0  0  0
    1.3410    3.5680 -100.9790 C   0  0  0  0  0  0  0  0  0  0  0  0
    0.0500    3.5650 -101.5510 C   0  0  0  0  0  0  0  0  0  0  0  0
   -0.8060    2.4610 -101.3800 C   0  0  0  0  0  0  0  0  0  0  0  0
   -0.3800    1.3460 -100.6340 C   0  0  0  0  0  0  0  0  0  0  0  0
    0.9040    1.3380 -100.0570 C   0  0  0  0  0  0  0  0  0  0  0  0
    1.7600    2.4430 -100.2280 C   0  0  0  0  0  0  0  0  0  0  0  0
    4.4350    2.9640 -105.1740 C   0  0  1  0  0  0  0  0  0  0  0  0
    4.0480    0.4060 -105.2490 C   0  0  1  0  0  0  0  0  0  0  0  0
    5.1520   -0.5990 -105.6340 C   0  0  0  0  0  0  0  0  0  0  0  0
    1.2330    0.2230 -105.0490 H   0  0  0  0  0  0  0  0  0  0  0  0
    1.1290    0.4430 -103.3050 H   0  0  0  0  0  0  0  0  0  0  0  0
    1.7980    1.7160 -104.3100 H   0  0  0  0  0  0  0  0  0  0  0  0
    2.5950   -1.9940 -104.6790 H   0  0  0  0  0  0  0  0  0  0  0  0
    3.9420   -1.9770 -103.5410 H   0  0  0  0  0  0  0  0  0  0  0  0
    2.3120   -1.7030 -102.9670 H   0  0  0  0  0  0  0  0  0  0  0  0
    6.0980    1.7020 -103.2720 H   0  0  0  0  0  0  0  0  0  0  0  0
    5.7080    4.0310 -103.6900 H   0  0  0  0  0  0  0  0  0  0  0  0
    2.7900    4.0350 -103.5630 H   0  0  0  0  0  0  0  0  0  0  0  0
    1.8090    5.4160 -101.9680 H   0  0  0  0  0  0  0  0  0  0  0  0
   -0.2890    4.4120 -102.1300 H   0  0  0  0  0  0  0  0  0  0  0  0
   -1.7910    2.4680 -101.8230 H   0  0  0  0  0  0  0  0  0  0  0  0
   -1.0350    0.4980 -100.5040 H   0  0  0  0  0  0  0  0  0  0  0  0
    1.2340    0.4840  -99.4850 H   0  0  0  0  0  0  0  0  0  0  0  0
    2.7430    2.4230  -99.7810 H   0  0  0  0  0  0  0  0  0  0  0  0
    3.4300    0.5780 -106.1320 H   0  0  0  0  0  0  0  0  0  0  0  0
  1  5  1  0  0  0  0
  1 27  1  0  0  0  0
  1 28  1  0  0  0  0
  1 29  1  0  0  0  0
  2 35  1  0  0  0  0
  2 12  1  0  0  0  0
  3 14  1  0  0  0  0
  4 10  1  0  0  0  0
  4  5  1  0  0  0  0
  5  8  1  0  0  0  0
  5 25  1  0  0  0  0
  6 25  1  1  0  0  0
  6 10  1  0  0  0  0
  6 24  1  0  0  0  0
  7 17  1  0  0  0  0
  8 30  1  0  0  0  0
  8 31  1  0  0  0  0
  8 32  1  0  0  0  0
  9 17  1  0  0  0  0
 10 12  1  0  0  0  0
 10 33  1  1  0  0  0
 12 24  1  0  0  0  0
 12 34  1  1  0  0  0
 13 26  1  0  0  0  0
 14  2  1  1  0  0  0
 14 16  1  0  0  0  0
 15 26  1  0  0  0  0
 16 17  1  0  0  0  0
 16 18  1  0  0  0  0
 16 36  1  6  0  0  0
 18 19  1  0  0  0  0
 18 23  1  0  0  0  0
 19 20  1  0  0  0  0
 19 37  1  0  0  0  0
 20 21  1  0  0  0  0
 20 38  1  0  0  0  0
 21 22  1  0  0  0  0
 21 39  1  0  0  0  0
 22 23  1  0  0  0  0
 22 40  1  0  0  0  0
 23 41  1  0  0  0  0
 24 11  1  1  0  0  0
 25 26  1  0  0  0  0
 25 42  1  6  0  0  0
M  END
$$$$
