generated by VMD
 OpenBabel05162215103D
Energy = 0
 46 49  0  0  1  0  0  0  0  0999 V2000
    3.2495    3.0242 -103.8939 S   0  0  0  0  0  0  0  0  0  0  0  0
    7.6262    3.7059 -103.3255 O   0  0  0  0  0  0  0  0  0  0  0  0
    4.7996    0.4092 -105.6912 O   0  0  0  0  0  1  0  0  0  0  0  0
    6.1477    1.2701 -107.2307 O   0  0  0  0  0  0  0  0  0  0  0  0
    3.7183    3.1802  -99.9028 O   0  0  0  0  0  0  0  0  0  0  0  0
    3.6012    7.7382  -99.8113 O   0  0  0  0  0  0  0  0  0  0  0  0
    5.7214    2.5158 -104.0591 N   0  0  0  0  0  0  0  0  0  0  0  0
    5.0591    4.1086 -101.4711 N   0  0  0  0  0  0  0  0  0  0  0  0
    2.3279    7.2344  -99.5064 N   0  0  0  0  0  0  0  0  0  0  0  0
    4.6871    2.2385 -103.0793 C   0  0  1  0  0  0  0  0  0  0  0  0
    4.0866    3.4812 -105.4643 C   0  0  0  0  0  0  0  0  0  0  0  0
    5.4533    2.7099 -105.4669 C   0  0  2  0  0  0  0  0  0  0  0  0
    5.6008    2.8715 -102.0170 C   0  0  1  0  0  0  0  0  0  0  0  0
    6.5772    3.1189 -103.1706 C   0  0  0  0  0  0  0  0  0  0  0  0
    3.1665    3.1674 -106.6630 C   0  0  0  0  0  0  0  0  0  0  0  0
    4.3508    4.9997 -105.4376 C   0  0  0  0  0  0  0  0  0  0  0  0
    5.4662    1.3463 -106.1846 C   0  0  0  0  0  0  0  0  0  0  0  0
    4.1660    4.1729 -100.4738 C   0  0  0  0  0  0  0  0  0  0  0  0
    3.6811    5.5526 -100.1411 C   0  0  0  0  0  0  0  0  0  0  0  0
    2.3821    5.9215  -99.6892 C   0  0  0  0  0  0  0  0  0  0  0  0
    4.4067    6.7107 -100.1854 C   0  0  0  0  0  0  0  0  0  0  0  0
    1.1861    5.1170  -99.4368 C   0  0  0  0  0  0  0  0  0  0  0  0
    5.8159    7.0566 -100.5392 C   0  0  0  0  0  0  0  0  0  0  0  0
    1.1835    4.1337  -98.4247 C   0  0  0  0  0  0  0  0  0  0  0  0
    0.0182    5.3285 -100.1991 C   0  0  0  0  0  0  0  0  0  0  0  0
    0.0294    3.3634  -98.1837 C   0  0  0  0  0  0  0  0  0  0  0  0
   -1.1374    4.5592  -99.9593 C   0  0  0  0  0  0  0  0  0  0  0  0
   -1.1320    3.5759  -98.9517 C   0  0  0  0  0  0  0  0  0  0  0  0
    4.5222    1.1701 -102.9258 H   0  0  0  0  0  0  0  0  0  0  0  0
    6.2394    3.3279 -105.9062 H   0  0  0  0  0  0  0  0  0  0  0  0
    5.9449    2.1565 -101.2672 H   0  0  0  0  0  0  0  0  0  0  0  0
    3.6705    3.3610 -107.6107 H   0  0  0  0  0  0  0  0  0  0  0  0
    2.8376    2.1278 -106.6651 H   0  0  0  0  0  0  0  0  0  0  0  0
    2.2661    3.7825 -106.6379 H   0  0  0  0  0  0  0  0  0  0  0  0
    4.8616    5.3276 -106.3434 H   0  0  0  0  0  0  0  0  0  0  0  0
    3.4205    5.5633 -105.3619 H   0  0  0  0  0  0  0  0  0  0  0  0
    4.9720    5.2847 -104.5883 H   0  0  0  0  0  0  0  0  0  0  0  0
    5.3538    4.9687 -101.9093 H   0  0  0  0  0  0  0  0  0  0  0  0
    6.5144    6.3536 -100.0853 H   0  0  0  0  0  0  0  0  0  0  0  0
    5.9600    7.0289 -101.6200 H   0  0  0  0  0  0  0  0  0  0  0  0
    6.0739    8.0570 -100.1911 H   0  0  0  0  0  0  0  0  0  0  0  0
    2.0705    3.9667  -97.8300 H   0  0  0  0  0  0  0  0  0  0  0  0
    0.0066    6.0811 -100.9737 H   0  0  0  0  0  0  0  0  0  0  0  0
    0.0346    2.6101  -97.4099 H   0  0  0  0  0  0  0  0  0  0  0  0
   -2.0280    4.7234 -100.5487 H   0  0  0  0  0  0  0  0  0  0  0  0
   -2.0176    2.9851  -98.7675 H   0  0  0  0  0  0  0  0  0  0  0  0
  1 10  1  0  0  0  0
  1 11  1  0  0  0  0
  2 14  2  0  0  0  0
  3 17  1  0  0  0  0
  4 17  2  0  0  0  0
  5 18  2  0  0  0  0
  6  9  1  0  0  0  0
  6 21  1  0  0  0  0
  7 10  1  0  0  0  0
  7 12  1  0  0  0  0
  7 14  1  0  0  0  0
  8 13  1  0  0  0  0
  8 18  1  0  0  0  0
  8 38  1  0  0  0  0
  9 20  2  0  0  0  0
 10 13  1  0  0  0  0
 10 29  1  1  0  0  0
 11 12  1  0  0  0  0
 11 15  1  0  0  0  0
 11 16  1  0  0  0  0
 12 17  1  0  0  0  0
 12 30  1  6  0  0  0
 13 14  1  0  0  0  0
 13 31  1  1  0  0  0
 15 32  1  0  0  0  0
 15 33  1  0  0  0  0
 15 34  1  0  0  0  0
 16 35  1  0  0  0  0
 16 36  1  0  0  0  0
 16 37  1  0  0  0  0
 18 19  1  0  0  0  0
 19 20  1  0  0  0  0
 19 21  2  0  0  0  0
 20 22  1  0  0  0  0
 21 23  1  0  0  0  0
 22 24  2  0  0  0  0
 22 25  1  0  0  0  0
 23 39  1  0  0  0  0
 23 40  1  0  0  0  0
 23 41  1  0  0  0  0
 24 26  1  0  0  0  0
 24 42  1  0  0  0  0
 25 27  2  0  0  0  0
 25 43  1  0  0  0  0
 26 28  2  0  0  0  0
 26 44  1  0  0  0  0
 27 28  1  0  0  0  0
 27 45  1  0  0  0  0
 28 46  1  0  0  0  0
M  END
$$$$
